/*--------------------------------*- C++ -*----------------------------------*\
| =========                 |                                                 |
| \\      /  F ield         | OpenFOAM: The Open Source CFD Toolbox           |
|  \\    /   O peration     | Version:  2212                                  |
|   \\  /    A nd           | Website:  www.openfoam.com                      |
|    \\/     M anipulation  |                                                 |
\*---------------------------------------------------------------------------*/
FoamFile
{
    version     2.0;
    format      ascii;
    arch        "LSB;label=32;scalar=64";
    class       polyBoundaryMesh;
    location    "constant/polyMesh";
    object      boundary;
}
// * * * * * * * * * * * * * * * * * * * * * * * * * * * * * * * * * * * * * //

4
(
    upWall
    {
        type            wall;
        inGroups        1(wall);
        nFaces          1001;
        startFace       2002000;
    }
    downWall
    {
        type            wall;
        inGroups        1(wall);
        nFaces          1001;
        startFace       2003001;
    }
    leftandright
    {
        type            wall;
        inGroups        1(wall);
        nFaces          2002;
        startFace       2004002;
    }
    frontAndBack
    {
        type            empty;
        inGroups        1(empty);
        nFaces          2004002;
        startFace       2006004;
    }
)

// ************************************************************************* //
